/*--------------------------------*- C++ -*----------------------------------*\
| =========                 |                                                 |
| \\      /  F ield         | OpenFOAM: The Open Source CFD Toolbox           |
|  \\    /   O peration     | Version:  plus                                  |
|   \\  /    A nd           | Web:      www.OpenFOAM.com                      |
|    \\/     M anipulation  |                                                 |
\*---------------------------------------------------------------------------*/
FoamFile
{
    version     2.0;
    format      ascii;
    class       dictionary;
    location    "system";
    object      controlDict;
}
// * * * * * * * * * * * * * * * * * * * * * * * * * * * * * * * * * * * * * //

application     pimpleFoam;

startFrom       startTime;

startTime       0;

stopAt          endTime;

endTime         5.0;

deltaT          0.001;

writeControl    timeStep;

writeInterval   100;

purgeWrite      0;

writeFormat     ascii;

writePrecision  6;

writeCompression off;

timeFormat      general;

timePrecision   6;

runTimeModifiable true;



functions
{

    probes
    {
        // Where to load it from
        functionObjectLibs ( "libsampling.so" );

        type        probes;

        // Name of the directory for probe data
        name        probes;

        enabled         true;
        
        writeControl timeStep;
        writeInterval 100;

        // Fields to be probed
        fields (
                p 
                U 
            );

        probeLocations
        (
        ( 0.175 -0.1 0.005 )
        ( 0.175 -0.05 0.005 )         
        ( 0.175 0.0 0.005 )  
        ( 0.175 0.05 0.005 ) 
        ( 0.175 0.1 0.005 ) 
        ( 0.2 -0.1 0.005 )
        ( 0.2 -0.05 0.005 )         
        ( 0.2 0.0 0.005 )  
        ( 0.2 0.05 0.005 ) 
        ( 0.2 0.1 0.005 )
        ( 0.225 -0.1 0.005 )
        ( 0.225 -0.05 0.005 )         
        ( 0.225 0.0 0.005 )  
        ( 0.225 0.05 0.005 ) 
        ( 0.225 0.1 0.005 ) 
        ( 0.25 -0.1 0.005 )
        ( 0.25 -0.05 0.005 )         
        ( 0.25 0.0 0.005 )  
        ( 0.25 0.05 0.005 ) 
        ( 0.25 0.1 0.005 )    
        );
    }

    forces_cylinder
    {
        type forces;
        functionObjectLibs ("libforces.so");
        enabled true;
        writeControl timeStep;
        writeInterval 100;
        patches
        (
            cylinder jet1 jet2 jet3 jet4
        );
        log true;
        rho rhoInf;
        rhoInf 1.0;
        CofR (0 0 0);
        liftDir (0 1 0);
        dragDir (1 0 0);
        pitchAxis (0 0 1);
        magUInf 0.9756;
        lRef 0.1;
        Aref 0.001;
    }

    forceCoeffs_cylinder
    {
        type forceCoeffs;
        functionObjectLibs ("libforces.so");
        enabled true;
        writeControl timeStep;
        writeInterval 100;
        patches
        (
            cylinder jet1 jet2 jet3 jet4
        );
        log true;
        rho rhoInf;
        rhoInf 1.0;
        CofR (0 0 0);
        liftDir (0 1 0);
        dragDir (1 0 0);
        pitchAxis (0 0 1);
        magUInf 0.9756;
        lRef 0.1;
        Aref 0.001;
    }
}


// ************************************************************************* //
