/*--------------------------------*- C++ -*----------------------------------*\
  =========                 |
  \\      /  F ield         | OpenFOAM: The Open Source CFD Toolbox
   \\    /   O peration     | Website:  https://openfoam.org
    \\  /    A nd           | Version:  7
     \\/     M anipulation  |
\*---------------------------------------------------------------------------*/
FoamFile
{
    version     2.0;
    format      ascii;
    class       polyBoundaryMesh;
    location    "constant/polyMesh";
    object      boundary;
}
// * * * * * * * * * * * * * * * * * * * * * * * * * * * * * * * * * * * * * //

10
(
    cyclic1
    {
        type    cyclic;
        inGroups    1(cyclic);
        neighbourPatch  cyclic2;
        nFaces          9568;
        startFace       16282;
    }
    cyclic2
    {
        type    cyclic;
        inGroups    1(cyclic);
        neighbourPatch  cyclic1;
        nFaces          9568;
        startFace       25850;
    }
    cylinder
    {
        type    wall;
        inGroups    1(wall);
        nFaces          148;
        startFace       35418;
    }
    jet3
    {
        type            patch;
        physicalType    patch;
        nFaces          3;
        startFace       35566;
    }
    jet2
    {
        type            patch;
        physicalType    patch;
        nFaces          3;
        startFace       35569;
    }
    jet1
    {
        type            patch;
        physicalType    patch;
        nFaces          3;
        startFace       35572;
    }
    jet4
    {
        type            patch;
        physicalType    patch;
        nFaces          3;
        startFace       35575;
    }
    wall
    {
        type    wall;
        inGroups    1(wall);
        nFaces          148;
        startFace       35578;
    }
    inlet
    {
        type            patch;
        physicalType    patch;
        nFaces          24;
        startFace       35726;
    }
    outlet
    {
        type            patch;
        physicalType    patch;
        nFaces          24;
        startFace       35750;
    }
)

// ************************************************************************* //
