/*--------------------------------*- C++ -*----------------------------------*\
  =========                 |
  \\      /  F ield         | OpenFOAM: The Open Source CFD Toolbox
   \\    /   O peration     | Website:  https://openfoam.org
    \\  /    A nd           | Version:  7
     \\/     M anipulation  |
\*---------------------------------------------------------------------------*/
FoamFile
{
    version     2.0;
    format      ascii;
    class       polyBoundaryMesh;
    location    "constant/polyMesh";
    object      boundary;
}
// * * * * * * * * * * * * * * * * * * * * * * * * * * * * * * * * * * * * * //

10
(
    cyclic1
    {
        type    cyclic;
        inGroups    1(cyclic);
        neighbourPatch  cyclic2;
        nFaces          13513;
        startFace       22447;
    }
    cyclic2
    {
        type    cyclic;
        inGroups    1(cyclic);
        neighbourPatch  cyclic1;
        nFaces          13513;
        startFace       35960;
    }
    cylinder
    {
        type    wall;
        physicalType wall;
        nFaces          148;
        startFace       49473;
    }
    jet3
    {
        type            patch;
        physicalType    patch;
        nFaces          3;
        startFace       49621;
    }
    jet2
    {
        type            patch;
        physicalType    patch;
        nFaces          3;
        startFace       49624;
    }
    jet1
    {
        type            patch;
        physicalType    patch;
        nFaces          3;
        startFace       49627;
    }
    jet4
    {
        type            patch;
        physicalType    patch;
        nFaces          3;
        startFace       49630;
    }
    wall
    {
        type    wall;
        physicalType wall;
        nFaces          178;
        startFace       49633;
    }
    inlet
    {
        type            patch;
        physicalType    patch;
        nFaces          29;
        startFace       49811;
    }
    outlet
    {
        type            patch;
        physicalType    patch;
        nFaces          29;
        startFace       49840;
    }
)

// ************************************************************************* //
